12
	Energy:      68.0680830
C          2.17663        1.48572        0.00000
C          0.65948        1.37118       -0.00000
C          0.00000        0.00000        0.00000
C          0.85784       -1.25670       -0.00000
C          2.37502       -1.14216       -0.00000
C          3.03448        0.22904       -0.00000
H         -1.10638       -0.08343       -0.00000
H          0.03388        2.28759       -0.00000
H          2.65755        2.48565       -0.00000
H          4.14085        0.31257       -0.00000
H          3.00071       -2.05851       -0.00000
H          0.37689       -2.25663       -0.00000
